Circuit: * H:\Documents\GitHub\Simple-GPSDO\sim\Output Amplifier\output-amplifier-sim.asc

Direct Newton iteration failed to find .op point.  (Use ".option noopiter" to skip.)
Starting Gmin stepping
Gmin = 10
Gmin = 1.07374
Gmin = 0.115292
Gmin = 0.0123794
vernier = 0.5
Gmin = 0.00207692
vernier = 0.25
vernier = 0.125
vernier = 0.0625
vernier = 0.03125
Gmin = 0.00181775
vernier = 0.015625
vernier = 0.0078125
Gmin = 0.0017931
vernier = 0.0104167
vernier = 0.0138889
Gmin = 0.00174102
vernier = 0.0185185
vernier = 0.0246913
Gmin = 0.00166117
vernier = 0.0329218
Gmin = 0.00154299
vernier = 0.0438957
vernier = 0.0585276
Gmin = 0.00136361
vernier = 0.0780367
vernier = 0.104049
Gmin = 0.00112052
vernier = 0.138732
Gmin = 0.000824076
vernier = 0.184976
vernier = 0.246634
Gmin = 0.000494573
vernier = 0.328846
vernier = 0.438461
Gmin = 0.000221842
vernier = 0.584614
Gmin = 6.455e-005
vernier = 0.779486
vernier = 1
Gmin = 9.08509e-006
Gmin = 9.75504e-007
Gmin = 1.04744e-007
Gmin = 1.12468e-008
Gmin = 1.20762e-009
Gmin = 1.29667e-010
Gmin = 1.39229e-011
Gmin = 1.49496e-012
Gmin = 1.6052e-013
Gmin = 0
Gmin stepping succeeded in finding the operating point.

Heightened Def Con from 1.57355e-007 to 1.57621e-007

Date: Sun Nov 07 11:43:01 2021
Total elapsed time: 2.151 seconds.

tnom = 27
temp = 27
method = modified trap
totiter = 230225
traniter = 228891
tranpoints = 96423
accept = 75874
rejected = 20550
matrix size = 124
fillins = 210
solver = Normal
Thread vector: 7.9/6.0[3] 1.5/1.1[3] 2.6/2.2[2] 0.4/2.0[1]  2592/500
Matrix Compiler1: 18.44 KB object code size  3.0/1.3/[0.8]
Matrix Compiler2: 13.73 KB object code size  1.2/1.5/[0.7]

