Circuit: * H:\Documents\GitHub\Simple-GPSDO\sim\Output Amplifier\output-amplifier-sim.asc

Direct Newton iteration for .op point succeeded.

Date: Wed Nov 01 11:39:16 2023
Total elapsed time: 0.485 seconds.

tnom = 27
temp = 27
method = modified trap
totiter = 198338
traniter = 198311
tranpoints = 72454
accept = 53505
rejected = 18949
matrix size = 14
fillins = 0
solver = Normal
Matrix Compiler1: 582 bytes object code size  0.1/0.1/[0.1]
Matrix Compiler2: 1.06 KB object code size  0.1/0.1/[0.1]

