Circuit: * H:\Documents\GitHub\Simple-GPSDO\sim\Output Amplifier\output-amplifier-sim.asc

WARNING: Node NC_01 is floating.

WARNING: Less than two connections to node NC_01.  This node is used by C4.
Direct Newton iteration for .op point succeeded.

Date: Mon Oct 30 09:46:39 2023
Total elapsed time: 0.337 seconds.

tnom = 27
temp = 27
method = modified trap
totiter = 110513
traniter = 110481
tranpoints = 54715
accept = 39607
rejected = 15108
matrix size = 14
fillins = 0
solver = Normal
Matrix Compiler1: 626 bytes object code size  0.1/0.1/[0.1]
Matrix Compiler2: 1.06 KB object code size  0.1/0.2/[0.1]

