Circuit: * H:\Documents\GitHub\Simple-GPSDO\sim\output-amplifier-sim.asc

Direct Newton iteration for .op point succeeded.
Heightened Def Con from 1.56818e-007 to 1.57208e-007
Heightened Def Con from 3.45167e-007 to 3.45167e-007
Heightened Def Con from 6.56743e-007 to 6.57368e-007
Heightened Def Con from 2.24649e-006 to 2.24653e-006
Heightened Def Con from 2.45652e-006 to 2.45652e-006
Heightened Def Con from 2.55651e-006 to 2.55651e-006
Heightened Def Con from 2.6565e-006 to 2.6565e-006
Heightened Def Con from 2.75649e-006 to 2.75651e-006
Heightened Def Con from 2.85648e-006 to 2.85648e-006
Heightened Def Con from 2.95647e-006 to 2.95647e-006
Heightened Def Con from 3.05646e-006 to 3.05646e-006
Heightened Def Con from 3.15645e-006 to 3.15646e-006
Heightened Def Con from 3.25644e-006 to 3.25644e-006
Heightened Def Con from 3.35643e-006 to 3.35643e-006
Heightened Def Con from 3.45642e-006 to 3.45644e-006
Heightened Def Con from 3.55641e-006 to 3.55642e-006
Heightened Def Con from 3.65641e-006 to 3.65642e-006
Heightened Def Con from 3.7564e-006 to 3.75641e-006
Heightened Def Con from 3.85639e-006 to 3.85641e-006
Heightened Def Con from 3.95638e-006 to 3.95639e-006
Heightened Def Con from 4.05638e-006 to 4.05677e-006
Heightened Def Con from 4.15637e-006 to 4.15663e-006
Heightened Def Con from 4.25636e-006 to 4.25662e-006
Heightened Def Con from 4.35635e-006 to 4.35662e-006
Heightened Def Con from 4.45634e-006 to 4.45661e-006
Heightened Def Con from 4.55633e-006 to 4.5566e-006
Heightened Def Con from 4.65633e-006 to 4.65633e-006
Heightened Def Con from 4.75632e-006 to 4.75632e-006
Heightened Def Con from 4.85631e-006 to 4.85631e-006
Heightened Def Con from 4.9563e-006 to 4.95631e-006
Heightened Def Con from 5.25628e-006 to 5.25629e-006
Heightened Def Con from 5.54758e-006 to 5.54758e-006
Heightened Def Con from 5.64763e-006 to 5.64763e-006
Heightened Def Con from 8.84859e-006 to 8.84859e-006
Heightened Def Con from 1.02488e-005 to 1.02488e-005
Heightened Def Con from 1.12489e-005 to 1.12502e-005
Heightened Def Con from 1.2049e-005 to 1.2049e-005
Heightened Def Con from 1.41497e-005 to 1.41497e-005
Heightened Def Con from 1.42494e-005 to 1.42495e-005
Heightened Def Con from 1.46496e-005 to 1.46496e-005
Heightened Def Con from 1.47496e-005 to 1.47497e-005
Heightened Def Con from 1.60499e-005 to 1.60499e-005
Heightened Def Con from 1.72502e-005 to 1.72502e-005
Heightened Def Con from 1.76503e-005 +++++++++++++++++++++++++++++++to 1.76533e-005
Heightened Def Con from 1.86505e-005 +to 1.86516e-005
Heightened Def Con from 1.93506e-005 to 1.93506e-005
Heightened Def Con from 2.00507e-005 to 2.00507e-005
Heightened Def Con from 2.05508e-005 +to 2.05508e-005
Heightened Def Con from 2.07508e-005 to 2.07508e-005
Heightened Def Con from 2.10508e-005 to 2.10508e-005
Heightened Def Con from 2.38515e-005 to 2.38515e-005
Heightened Def Con from 2.47517e-005 to 2.47517e-005
Heightened Def Con from 2.56519e-005 +to 2.56519e-005
Heightened Def Con from 2.5852e-005 to 2.5855e-005
Heightened Def Con from 2.6052e-005 to 2.6055e-005
Heightened Def Con from 2.62522e-005 to 2.62542e-005

Date: Thu Nov 04 18:38:40 2021
Total elapsed time: 3.120 seconds.

tnom = 27
temp = 27
method = modified trap
totiter = 354735
traniter = 354730
tranpoints = 122910
accept = 92137
rejected = 30863
matrix size = 125
fillins = 145
solver = Normal
Thread vector: 4.9/2.8[3] 1.3/0.9[3] 1.2/0.9[3] 0.3/0.5[1]  2592/500
Matrix Compiler1: 13.86 KB object code size  2.6/1.2/[0.7]
Matrix Compiler2: 12.61 KB object code size  0.8/1.2/[0.5]

