Circuit: * H:\Documents\GitHub\Simple-GPSDO\sim\OSC Control Amp\control-amp.asc

Limiting rise time of source v4 to 0.0001
Limiting fall time of source v4 to 0.0001
Limiting rise time of source v3 to 0.0001
Limiting fall time of source v3 to 0.0001
.OP point found by inspection.

Date: Fri Nov 05 22:48:22 2021
Total elapsed time: 0.306 seconds.

tnom = 27
temp = 27
method = modified trap
totiter = 185046
traniter = 185046
tranpoints = 92524
accept = 75023
rejected = 17501
matrix size = 6
fillins = 0
solver = Normal
Matrix Compiler1: 146 bytes object code size  0.1/0.0/[0.0]
Matrix Compiler2: off  [0.1]/0.1/0.1

